681
4E0O.pdb
N         14.45600       -7.90000       10.95800
C         13.86500       -7.78000       12.29000
C         13.12700       -9.06500       12.68200
C         11.85000       -9.33100       11.88500
C         10.59800       -9.60200       12.72800
N         10.37400       -8.60400       13.77200
C         14.90600       -7.43400       13.35400
O         16.07900       -7.80100       13.23700
N         14.16100       -6.67500       14.37700
C         15.10600       -6.10700       15.31800
C         14.47100       -5.88700       16.69000
O         13.24300       -5.87600       16.83300
C         15.64300       -4.77700       14.77700
O         14.63100       -3.79300       14.65300
N         15.33300       -5.71900       17.68600
C         14.93100       -5.41400       19.05500
C         14.94200       -5.42100       19.06400
C         14.33300       -4.00400       19.09600
O         14.88900       -3.08500       18.50300
C         16.12100       -5.56800       20.02900
C         16.14300       -5.58300       20.04600
C         17.24200       -4.59200       19.70800
C         15.79900       -5.08500       21.44700
C         15.67700       -5.45900       21.48300
C         16.61400       -7.04600       20.10900
N         13.20500       -3.83500       19.79000
C         12.59100       -2.51500       19.90000
C         12.17500       -2.35500       21.33700
O         11.51600       -3.24900       21.88200
C         11.38900       -2.35600       18.94600
C         10.81300       -0.92700       18.97900
C          9.93700       -0.58400       17.78700
O          9.54600       -1.43900       16.98100
N          9.63400        0.69300       17.63700
N         12.63600       -1.26500       21.97200
C         12.30500       -0.97600       23.36700
C         11.69300        0.41100       23.37700
O         12.27600        1.33700       22.79900
C         13.54100       -1.05600       24.30600
C         14.29000       -2.43400       24.24200
C         13.13200       -0.67800       25.75800
C         13.50900       -3.70400       24.76000
N         10.51900        0.56000       24.02800
C          9.79600        1.82000       24.02500
C          9.51100        2.25400       25.43900
O          9.10800        1.43800       26.26400
C          8.46700        1.69500       23.18200
C          7.65500        3.00800       23.21900
C          8.78000        1.32200       21.72200
N          9.69700        3.55200       25.70500
C          9.28800        4.19500       26.94300
C          8.25500        5.24600       26.50600
O          8.57000        6.09700       25.67500
C         10.48200        4.93300       27.60900
C         10.08700        5.80500       28.77400
C          9.78500        5.25200       30.01600
C          9.95500        7.18900       28.62400
C          9.41500        6.05300       31.09200
C          9.61100        7.99800       29.69900
C          9.34200        7.42700       30.93200
O          9.05300        8.23900       31.99400
N          7.03700        5.17600       27.02200
C          6.04000        6.17700       26.65300
C          5.31000        6.64200       27.91000
O          4.51100        5.87500       28.45200
C          5.05900        5.56800       25.61300
C          4.14800        6.62400       25.00500
C          3.12000        6.00500       24.06900
C          2.34200        7.05400       23.31300
N          1.24800        6.44100       22.50600
N          4.17300        6.53300       33.01700
C          4.63100        6.03000       31.72200
C          5.93200        6.73200       31.28600
C          5.76600        8.19200       30.80500
C          4.87000        8.34400       29.57000
N          5.57500        7.92800       28.35800
C          4.82900        4.51800       31.79200
O          4.92400        3.94100       32.88000
N          4.84300        3.98300       30.54700
C          4.99400        2.52600       30.40000
C          6.34100        2.22700       29.75400
O          6.86100        3.06500       29.03900
C          3.90400        1.97700       29.47900
C          2.49300        2.09000       30.01400
C          1.52200        1.51000       29.01200
O          1.34000        2.13000       27.93900
O          1.02300        0.38800       29.25500
N          6.85400        0.99400       29.92700
C          8.13600        0.60200       29.37100
C          8.01300       -0.78800       28.76800
O          7.53900       -1.72800       29.44500
C          9.23500        0.66800       30.47400
C         10.59400        0.15000       30.06900
C         10.95800       -1.17000       30.32300
C         11.52800        0.99200       29.46700
C         12.21300       -1.65900       29.93300
C         12.79100        0.51100       29.09800
C         13.12900       -0.81500       29.35500
N          8.38000       -0.98800       27.45400
N          8.46900       -2.21300       27.12400
C          8.99500       -2.55900       25.94200
O          9.41600       -1.74300       25.13000
C          9.09400       -4.06500       25.58100
C          9.70900       -4.38400       24.36200
C          8.53500       -5.06900       26.37100
C          7.33800       -5.81100       28.30000
O          7.89200       -4.72700       27.52700
C          8.68300       -6.40300       25.97000
C          9.29900       -6.71300       24.75500
C          9.83700       -5.70400       23.95500
N         10.45600       -5.92900       22.77800
C         10.50500       -7.08600       22.11600
O          9.99700       -8.13000       22.49900
C         11.23500       -7.08300       20.77900
O         11.77700       -6.03000       20.47200
C         14.32800       -9.28200       20.07300
C         14.63900       -9.51500       17.64300
C         15.70100       -9.30300       20.29400
C         15.54700       -9.85200       16.62800
C         16.54500       -9.52400       19.21300
C         15.17500      -10.74000       15.61900
Br        18.40600       -9.55400       19.45500
Br        16.38800      -11.22200       14.24900
C         16.06700       -9.74400       17.93700
C         13.90000      -11.29000       15.61300
C         14.70000       -9.75700       17.71500
C         12.99000      -10.96000       16.61900
C         13.84500       -9.51300       18.78300
C         13.34300      -10.04800       17.61600
C         12.38200       -9.57300       18.52600
C         12.35000       -9.77600       18.72500
C         11.74400       -8.24200       18.80000
C         11.76100       -8.37300       18.80000
N         11.23000       -8.29100       20.15800
C         10.58400       -8.22300       17.84800
O          9.56200       -8.86100       18.06200
N         10.82200       -7.48000       16.76100
C          9.83000       -7.34200       15.69200
C         10.53800       -7.37100       14.34700
O         11.21500       -6.41200       13.99700
C          9.02300       -6.04700       15.88400
N         -0.53400       14.60500       26.47100
C          0.72100       14.38200       25.74800
C          1.28400       15.69900       25.20100
C          0.45300       16.33600       24.07400
C          0.37300       15.49500       22.79700
N          1.67500       15.33100       22.15600
C          1.74900       13.73400       26.66800
O          1.61800       13.77400       27.89500
N          2.78600       13.10000       25.88000
C          3.73200       12.34300       26.69000
C          5.12200       12.27900       26.05100
O          5.27400       12.35900       24.82900
C          3.22200       10.91600       26.87200
O          3.13800       10.23800       25.62800
N          6.12700       12.06200       26.88500
C          7.48100       11.80800       26.42400
C          7.51400       10.38400       25.84200
O          6.90500        9.47700       26.41600
C          8.47400       12.00000       27.58900
C          9.89300       11.61900       27.17000
C          8.44900       13.46500       28.05800
N          8.17900       10.21400       24.68100
C          8.31500        8.92800       24.00800
C          9.76300        8.77000       23.57900
O         10.31300        9.66200       22.93600
C          7.39600        8.82900       22.79000
C          7.45900        7.42000       22.17100
C          6.30500        7.05800       21.26300
O          5.43400        7.87600       20.93700
N          6.28100        5.80400       20.84400
N         10.37700        7.64700       23.97000
C         11.77300        7.33600       23.67700
C         11.79400        5.94800       23.12500
O         11.21300        5.03900       23.74000
C         12.62900        7.41400       24.96300
C         12.54000        8.82100       25.64500
C         14.08600        7.00100       24.63800
C         13.30400       10.01200       24.86000
N         12.44400        5.78500       21.96000
C         12.49300        4.51100       21.26900
C         13.94200        4.09500       21.01600
O         14.78700        4.90500       20.61700
C         11.67800        4.56300       19.92300
C         11.72400        3.20800       19.20900
C         10.20700        4.93900       20.17900
N         14.20500        2.82300       21.23000
C         15.45900        2.15800       20.88300
C         15.05800        1.07800       19.86800
O         14.20100        0.25900       20.17400
C         16.11200        1.52500       22.12700
C         17.28100        0.61100       21.80300
C         18.52800        1.13200       21.46600
C         17.13000       -0.77700       21.79800
C         19.58700        0.29700       21.10100
C         18.20800       -1.62100       21.51200
C         19.44200       -1.07600       21.19000
O         20.51500       -1.90000       20.93200
N         15.55200        1.14600       18.64000
C         15.19100        0.18400       17.61700
C         16.46700       -0.29100       16.92300
O         17.06800        0.50200       16.20600
C         14.17100        0.80100       16.62300
C         13.62800       -0.22500       15.60800
C         12.75000        0.47100       14.55300
C         12.42200       -0.39700       13.36400
N         11.87800        0.42400       12.24200
N         21.51600       -0.27600       15.93900
C         20.23800        0.25100       16.42200
C         19.78500       -0.47300       17.70400
C         19.39200       -1.95300       17.43300
C         18.18400       -2.09500       16.49300
N         16.95400       -1.55800       17.11000
C         20.33700        1.75100       16.65800
O         21.43900        2.27600       16.83700
N         19.16000        2.37800       16.60200
C         19.02300        3.82700       16.72600
C         18.27200        4.14200       17.98700
O         17.51600        3.28900       18.44400
C         18.33300        4.43500       15.48600
C         19.17400        4.32700       14.21000
C         20.57100        4.92300       14.27800
O         21.55900        4.15600       14.21700
O         20.67800        6.15200       14.47500
N         18.45900        5.37400       18.52500
C         17.86300        5.79400       19.80700
C         17.26300        7.18700       19.69600
O         17.97600        8.11300       19.25500
C         18.98000        5.79200       20.87400
C         18.51700        6.24200       22.22900
C         18.70100        7.55300       22.64200
C         17.86500        5.36000       23.08600
C         18.27000        7.96800       23.90000
C         17.43800        5.78000       24.34700
C         17.63300        7.09200       24.73700
N         15.99600        7.36400       20.07100
N         15.62400        8.57400       20.07700
C         14.40400        8.90700       20.51300
O         13.59500        8.10200       20.98400
C         14.03100       10.42100       20.52800
C         12.82300       10.71700       21.15400
C         14.86500       11.43900       19.99700
C         16.98900       12.22800       19.02900
O         16.06900       11.13200       19.39500
C         14.44400       12.77200       20.13500
C         13.24700       13.05300       20.81700
C         12.39300       12.04400       21.28100
N         11.21300       12.26700       21.91800
C         10.49200       13.39200       21.89700
O         10.78200       14.42000       21.26300
C          9.19400       13.40000       22.71000
O          8.86000       12.41500       23.36700
C          8.56400       15.71200       25.79300
C          5.93400       15.75900       26.02200
C          8.71900       15.71900       27.17700
C          4.96600       16.28900       26.88700
C          7.60200       15.89000       27.97900
C          4.34300       17.49900       26.58800
Br         7.80300       15.92000       29.83700
Br         3.02300       18.26600       27.71300
C          6.32900       16.07900       27.45800
C          4.68900       18.20100       25.44300
C          6.16800       16.08800       26.08200
C          5.63400       17.68400       24.57100
C          7.28600       15.91000       25.27200
C          6.24800       16.45500       24.84400
C          7.09800       15.96800       23.80000
C          7.33300       16.03900       23.87400
C          7.23000       14.59200       23.19000
C          7.24100       14.67700       23.19400
N          8.55600       14.53100       22.60200
C          6.26100       14.65500       22.03700
O          6.26800       15.59500       21.25400
N          4.99000       14.35500       22.39300
C          3.79600       14.37500       21.53400
C          2.52300       14.21800       22.33900
O          2.37800       13.22500       23.04400
C          3.87900       13.35100       20.37500
C          4.31800       11.93300       20.76800
C          4.39000       10.98700       19.57200
C          3.13700       10.15800       19.41100
N          3.26600        9.17600       18.30300
N          6.29700       17.34500      -12.97800
C          6.39100       16.55100      -11.75800
C          6.92600       17.38400      -10.59300
C          8.34400       17.93200      -10.77900
C          9.47000       16.93400      -10.48700
N          9.29900       16.20900       -9.22700
C          5.04700       15.94400      -11.38300
O          3.99300       16.41100      -11.81400
N          5.21400       14.79900      -10.50700
C          3.97600       14.16100      -10.09600
C          3.97800       13.80100       -8.61700
O          5.04300       13.71400       -7.97900
C          3.68400       12.93400      -10.96000
O          4.67400       11.92800      -10.84700
N          2.77200       13.62700       -8.06400
C          2.61500       13.25300       -6.66300
C          3.20000       11.85800       -6.41400
O          3.03000       10.94900       -7.23200
C          1.14000       13.34800       -6.19000
C          0.26300       12.31100       -6.89300
C          1.04400       13.21600       -4.66100
N          3.90500       11.71300       -5.28500
C          4.49400       10.44500       -4.89500
C          4.29900       10.24300       -3.38600
O          4.77900       11.05500       -2.57500
C          5.97000       10.34200       -5.30400
C          6.45600        8.89700       -5.18300
C          7.86700        8.70200       -5.68600
O          8.22600        9.09100       -6.80500
N          8.69400        8.07900       -4.87400
N          3.60600        9.15100       -3.02900
C          3.33200        8.80400       -1.62600
C          3.90400        7.41100       -1.38800
O          3.60800        6.48600       -2.14000
C          1.80400        8.89300       -1.28700
C          1.19600       10.27400       -1.65100
C          1.53200        8.50100        0.18300
C          1.72500       11.53300       -0.82600
N          4.75500        7.28300       -0.37000
C          5.41700        6.02200       -0.03600
C          5.09300        5.59300        1.39300
O          5.12000        6.40700        2.33200
C          6.96500        6.14500       -0.23000
C          7.68800        4.84600        0.17900
C          7.31200        6.50900       -1.67000
N          4.83000        4.27900        1.54500
C          4.69200        3.63300        2.82200
C          5.81300        2.60200        2.79200
O          5.85900        1.79500        1.85700
C          3.33400        2.92200        2.93200
C          3.25700        2.02300        4.14400
C          2.91200        2.53100        5.39300
C          3.54400        0.65800        4.04600
C          2.80900        1.69900        6.50900
C          3.47400       -0.17400        5.15800
C          3.11600        0.35000        6.39000
O          2.98800       -0.50300        7.45500
N          6.74800        2.65400        3.76100
C          7.83400        1.68000        3.79700
C          7.94800        1.16900        5.22800
O          8.32000        1.94800        6.10200
C          9.15300        2.32800        3.29700
C         10.30800        1.32400        3.18700
C         11.62800        2.01800        2.90700
C         12.76200        1.02200        2.81500
N         14.07700        1.64200        3.14400
N          6.97700        1.23500       10.44500
C          7.11900        1.72800        9.08100
C          6.09600        1.05100        8.15800
C          6.39600       -0.42600        7.85600
C          7.69900       -0.67800        7.07800
N          7.62000       -0.16400        5.70600
C          6.95300        3.23600        9.03800
O          6.21700        3.81400        9.84400
N          7.26300        3.84400        7.87800
C          7.18600        5.28900        7.67200
C          6.20800        5.58800        6.54900
O          5.94800        4.72400        5.70700
C          8.56800        5.87000        7.34200
C          9.50500        5.96500        8.54300
C         10.94200        6.37400        8.25900
O         11.25500        6.74400        7.10300
O         11.75800        6.33500        9.20900
N          5.65400        6.80700        6.54700
C          4.69000        7.20100        5.53100
C          5.00900        8.61000        5.02600
O          5.10700        9.54800        5.82500
C          3.24100        7.12300        6.09900
C          2.15600        7.59100        5.14900
C          1.69900        8.91300        5.18000
C          1.56800        6.70600        4.24800
C          0.70500        9.35200        4.29500
C          0.57100        7.14300        3.36300
C          0.15000        8.46400        3.38900
N          5.16600        8.86800        3.71300
N          5.33900       10.05200        3.35100
C          5.26900       10.39700        2.06200
O          5.13100        9.58700        1.14900
C          5.40600       11.89100        1.70500
C          5.25300       12.22400        0.35100
C          5.62100       12.89700        2.66100
C          5.63400       13.62200        4.96400
O          5.75300       12.56300        3.99400
C          5.71400       14.23400        2.22700
C          5.60500       14.53800        0.87400
C          5.35000       13.54400       -0.07500
N          5.25700       13.78800       -1.39800
C          5.51200       14.94300       -2.02400
O          5.86600       15.98700       -1.47200
C          5.35400       14.92300       -3.53700
O          4.94700       13.87400       -4.04500
C          2.84700       16.98500       -5.52000
C          3.85300       17.31700       -7.60200
C          1.50200       17.03100       -5.88100
C          3.22300       17.69500       -8.78700
C          1.16600       17.30900       -7.20000
C          3.63400       18.84200       -9.46000
Br        -0.63900       17.32700       -7.71700
Br         2.77600       19.34600      -11.06800
C          2.12300       17.58200       -8.16500
C          4.68200       19.60800       -8.96500
C          3.46400       17.57900       -7.79800
C          5.31900       19.22900       -7.78300
C          3.81700       17.28500       -6.48100
C          4.91700       18.07400       -7.10700
C          5.27500       17.30700       -6.11300
C          5.61200       17.70500       -5.81500
C          5.70600       15.95200       -5.60900
C          5.75800       16.20200       -5.59200
N          5.62600       15.95500       -4.16000
C          7.14600       15.78300       -6.02900
O          8.08700       16.26800       -5.41400
N          7.48700       14.85500       -6.95800
C          8.79700       14.59300       -7.56300
C          8.77700       15.01400       -9.02800
O          7.90900       14.56700       -9.77900
C          9.17900       13.10000       -7.43100
C         10.61100       12.76700       -7.87900
C         10.85900       11.26200       -7.86300
C         12.29800       10.89000       -8.13400
N         12.65400       11.03500       -9.56800
N         13.88200       -7.20300        5.99500
C         13.07100       -6.67800        4.90000
C         12.77400       -7.78100        3.88100
C         13.98200       -8.23000        3.07300
C         14.54200       -7.16600        2.14400
N         13.61500       -6.83300        1.06300
C         11.76000       -6.08300        5.41300
O         11.36100       -6.33000        6.55900
N         11.05100       -5.22100        4.38700
C          9.78300       -4.62900        4.79400
C          8.80900       -4.43300        3.63100
O          9.19600       -4.47200        2.45600
C         10.01600       -3.29500        5.50500
O         10.61600       -2.33600        4.64900
N          7.53300       -4.19700        3.98000
C          6.46800       -3.90200        3.02000
C          6.71600       -2.51400        2.47700
O          6.94400       -1.58300        3.25800
C          5.06100       -3.98000        3.66500
C          3.95400       -3.77200        2.63400
C          4.87100       -5.30100        4.36600
N          6.62500       -2.36500        1.15200
C          6.79000       -1.06700        0.51500
C          5.61800       -0.88700       -0.42900
O          5.34900       -1.78400       -1.22900
C          8.12200       -1.00700       -0.23700
C          8.56300        0.41300       -0.55400
C          9.94200        0.44500       -1.16700
O         10.87700       -0.23600       -0.71700
N         10.09100        1.23700       -2.21400
N          4.87300        0.21300       -0.27500
C          3.68200        0.50900       -1.09100
C          3.89500        1.91900       -1.64400
O          4.20500        2.82500       -0.88400
C          2.35900        0.42100       -0.26900
C          2.12000       -1.01300        0.33000
C          1.15500        0.88400       -1.14000
C          1.81500       -2.13600       -0.71100
N          3.78200        2.07300       -2.96800
C          4.01000        3.34700       -3.63100
C          2.79100        3.74700       -4.42000
O          2.19700        2.92600       -5.12100
C          5.28400        3.27000       -4.56000
C          5.49900        4.57000       -5.34600
C          6.55100        2.94400       -3.75700
N          2.47200        5.04500       -4.37400
C          1.45300        5.65300       -5.22200
C          2.23600        6.74300       -5.97400
O          2.90000        7.54000       -5.33000
C          0.32800        6.25300       -4.37600
C         -0.62300        7.14800       -5.14800
C         -1.61900        6.60900       -5.95600
C         -0.54700        8.53200       -5.04100
C         -2.49400        7.42900       -6.66700
C         -1.43000        9.36000       -5.72600
C         -2.40700        8.80400       -6.53400
O         -3.27600        9.63500       -7.19400
N          2.25900        6.71300       -7.31300
C          2.99000        7.71200       -8.09600
C          2.11100        8.15500       -9.24600
O          1.86600        7.34500      -10.13900
C          4.35100        7.14700       -8.58800
C          5.25300        8.19700       -9.22700
C          6.57000        7.61000       -9.69900
C          7.39600        8.62800      -10.44300
N          8.58700        8.00800      -11.07600
N         -1.98700        8.01500      -12.15800
C         -1.03800        7.45200      -11.20900
C         -1.13400        8.20000       -9.87400
C         -0.76000        9.69000       -9.94900
C          0.71300        9.96000      -10.25100
N          1.59600        9.39200       -9.22900
C         -1.36100        5.97200      -10.99300
O         -2.36300        5.46400      -11.51100
N         -0.10000        5.42500      -10.71300
C          0.00700        3.98200      -10.48600
C          0.10800        3.67100       -9.00900
O          0.57500        4.49900       -8.22800
C          1.21200        3.38000      -11.23300
C          1.18800        3.57200      -12.74300
C          0.26800        2.62200      -13.48100
O          0.69800        1.47900      -13.75500
O         -0.88400        3.01500      -13.77500
N         -0.27700        2.43900       -8.63400
C         -0.24300        2.04600       -7.22700
C          0.32200        0.64700       -7.07900
O         -0.13900       -0.24300       -7.79100
C         -1.67900        2.10400       -6.67800
C         -1.84800        1.63100       -5.26000
C         -2.19700        0.30800       -4.98600
C         -1.66400        2.50400       -4.19500
C         -2.32600       -0.13300       -3.66500
C         -1.80700        2.06500       -2.88000
C         -2.15900        0.75900       -2.62400
N          1.27200        0.37300       -6.19100
N          1.64800       -0.81200       -6.04100
C          2.57200       -1.10600       -5.15000
O          3.11900       -0.27100       -4.42400
C          2.92900       -2.59100       -4.99100
C          3.74800       -2.90300       -3.91700
C          2.35600       -3.61100       -5.78800
C          0.87100       -4.36300       -7.53800
O          1.54200       -3.26900       -6.83600
C          2.64600       -4.95300       -5.47600
C          3.53300       -5.24000       -4.42500
C          4.08600       -4.23400       -3.63700
N          4.93100       -4.44300       -2.59800
C          5.60800       -5.56500       -2.31900
O          5.56200       -6.59300       -2.98400
C          6.53300       -5.57000       -1.10100
O          6.73800       -4.52000       -0.50000
C          5.97400       -7.93200        2.08900
C          8.17300       -7.90700        3.13400
C          5.23900       -8.02600        3.26900
C          8.65300       -8.34700        4.37200
C          5.88700       -8.17800        4.49100
C          9.47400       -9.46700        4.44300
Br         4.87900       -8.19900        6.09400
Br        10.11400      -10.09700        6.10700
C          7.26800       -8.31100        4.54100
C          9.83000      -10.16100        3.29800
C          8.00600       -8.28000        3.35900
C          9.35800       -9.72600        2.06300
C          7.35600       -8.08500        2.14000
C          8.55900       -8.59100        1.97800
C          8.15500       -8.10100        0.87000
C          8.03400       -8.23200        0.61400
C          8.21300       -6.74500        0.18900
C          8.20800       -6.78300        0.19300
N          7.17000       -6.65500       -0.81500
C          9.53600       -6.66600       -0.52300
O          9.81000       -7.46300       -1.41000
N         10.41600       -5.93100        0.18600
C         11.81800       -5.69700       -0.15900
C         12.68900       -5.85300        1.08400
O         12.50400       -5.12900        2.05900
C         11.99400       -4.31400       -0.80400
C          2.82600       -2.52400       26.43600
C          4.19000       -2.01700       26.89700
O          4.00800       -1.13400       28.03400
C          4.98400       -3.21700       27.39400
C          4.95500       -1.31900       25.75800
C          4.69700        0.16800       25.46600
O          3.37700        0.58300       25.73600
C          5.68400        1.10000       26.14900
C         13.14800      -11.56000       25.42300
C         12.40200      -10.22700       25.39500
O         11.54300      -10.19400       24.23200
C         11.50200      -10.15500       26.62100
C         13.33900       -9.01100       25.38000
C         14.24900       -8.85100       24.15600
O         13.47500       -8.80000       22.97300
C         15.08300       -7.58000       24.29300
P         23.42800       -1.27000       19.11100
O         24.97700       -1.47600       19.33000
O         23.37500       -0.23800       17.91200
O         22.86100       -2.67800       18.67500
O         22.77100       -0.77500       20.48500
C         14.80400        5.13300       17.10100
C         14.56400        6.37700       16.25500
O         14.48900        5.95500       14.87000
C         13.21600        6.96700       16.65100
C         15.71700        7.36700       16.48300
C         15.89300        8.54500       15.51300
O         16.52300        9.60300       16.20100
C         16.79200        8.18500       14.33700
C          8.32100        8.45300       18.63100
C          9.66000        9.14300       18.38900
O         10.67700        8.41300       19.13000
C         10.01400        9.02900       16.90800
C          9.65700       10.58400       18.93000
C          8.88200       11.65900       18.15600
O          7.94300       12.26400       19.02100
C          9.83400       12.73200       17.63600
C         10.80300       12.63700       -2.44400
C          9.42900       13.12100       -1.98400
O          9.62700       14.38900       -1.31000
C          8.55200       13.39800       -3.19900
C          8.71000       12.22800       -0.95400
C          8.89300       10.70700       -0.98600
O          8.50900       10.18700        0.26500
C          8.01400       10.04400       -2.03300
P         -5.22300        9.08500       -9.94500
O         -4.26600       10.31500      -10.01500
O         -6.70300        9.46400      -10.34000
O         -4.73800        7.99400      -10.99600
O         -5.25000        8.54200       -8.45600
P         -2.90900       11.56100      -13.28800
O         -2.28700       12.71200      -12.39600
O         -3.06000       12.00400      -14.80400
O         -1.89600       10.35700      -13.25300
O         -4.34000       11.21300      -12.71300
C          1.98700       -5.85200       -0.63600
C          2.26200       -7.13800        0.13700
O          3.64200       -7.52200       -0.06800
C          2.08900       -6.87400        1.62100
C          1.33200       -8.29200       -0.24600
C          1.31300       -8.72600       -1.71200
O          2.63300       -8.90200       -2.18800
C          0.53300      -10.02600       -1.83500
C          3.57500        2.56400       -8.40000
C          4.21000        1.27100       -8.89100
O          4.99100        1.59300      -10.07200
C          5.14400        0.75500       -7.80300
C          3.10800        0.25000       -9.20100
C          3.38800       -0.78600      -10.29500
O          4.20600       -1.81600       -9.79100
C          2.08700       -1.38400      -10.82200
O          5.57800       -0.44300       32.00800
O         13.37600        3.17000       24.80100
O          1.89500        5.16500       28.18200
O          8.79300        7.22800       34.42700
O         18.21000       -5.81300       16.72900
O          7.14800       -3.03300       31.74400
O          1.04500        5.57700       30.72000
O          5.83100       -5.38000       32.05200
O          6.23100        6.23500       34.89100
O         15.80400       -1.94500       13.04300
O          6.88300        0.90600       33.94700
O         18.28100       -8.41700       15.04400
O         20.62000        6.83700       17.44600
O         20.19200        9.47900       19.00500
O         24.10300       -0.58600       22.83800
O         21.58600       -2.58900       14.70700
O         21.86500        1.51500       13.74400
O         21.39700       -9.49400       19.59000
O         16.77100        1.22100       13.58400
O         24.50500       -2.16000       14.83500
O         22.32600       -4.22000       16.50400
O         19.86500       -1.99300       13.14600
O         19.61500        0.77200       12.61000
O         26.48600       -1.40600       22.00500
O         25.81500       -3.68500       18.99700
O         23.45000        4.26800       16.62600
O          7.67900       15.94900       32.63800
O         15.00500        3.59100       13.45000
O          0.59600       14.07200       -9.89300
O          1.84500        4.72900       -0.67300
O          5.88600        8.28300        8.98400
O          4.30700        9.61300      -12.18800
O          4.44400       10.84300        8.15200
O          8.14900       12.09600      -10.87500
O         11.03600        2.79200        6.55200
O          6.44000       12.36400      -12.93400
O          9.96900        7.43400       -8.11000
O         -2.04200       13.17900       -9.78500
O          3.11200        6.35800      -12.33700
O         -1.99200        1.02000      -10.58300
O         -1.81300       -2.01200       -8.96700
O         -4.21000        0.46500      -12.44900
O         -3.29000       17.19000       -9.08100
O         -7.21300        8.22800       -6.92100
O          0.40700        9.54100      -14.41100
O         -8.10400       11.53400      -11.08400
O         -5.21600        5.82400       -9.41100
O         -1.93700        9.75300      -15.98700
O          0.47500       12.77300      -12.48600
O         -1.48700        6.53800      -14.59200
