147

Au      0.863612620000000     10.165467520000000     14.256430499999999
Au      9.158830980000001     10.168167879999999     14.257049560000000
Au      9.159737340000000     10.174013459999999      7.103283459999999
Au      9.155459819999999     10.164014380000001     21.403742619999999
Au      3.536031720000000     10.168052180000000     14.258336300000000
Au     11.991745740000001     10.168714400000001     14.260906660000002
Au     11.963589560000001     10.211136260000000      7.356301680000000
Au     11.967944559999999     10.132059860000000     21.159022040000000
Au      6.325499960000000     10.168469220000000     14.260199719999999
Au      6.355999780000000     10.208776240000001      7.353304919999999
Au      6.345758120000000     10.132798780000000     21.157132100000002
Au     14.781116220000001     10.170959760000001     14.262894100000000
Au     10.534406219999999      2.845260080000000     14.250076879999998
Au      2.125023160000000     12.641243160000000     14.251751020000000
Au     10.575386119999999     12.624920880000001     14.262562860000001
Au     10.593460540000001     12.587808480000000      7.352597719999999
Au     10.526010300000001     12.616388980000000     21.164485679999999
Au      5.012285460000000      2.984262840000000     14.262548819999999
Au     13.311812800000000      2.985800480000000     14.264742440000001
Au      4.905614480000001     12.622649259999999     14.230518640000000
Au      5.008343600000000     12.565793240000000     21.030971000000001
Au     13.410571460000002     12.626194099999999     14.236499159999999
Au     13.302405999999998     12.568254659999999     21.033563980000000
Au      7.788829099999999      2.843013420000000     14.251100499999998
Au      7.742124260000000     12.624067300000000     14.260593880000000
Au      7.724426060000000     12.586806440000000      7.351619339999999
Au      7.784013120000000     12.618119539999999     21.162864319999997
Au     16.191204639999999     12.645833459999999     14.257775740000001
Au      9.158925620000000      5.257858060000000     14.228462040000000
Au      9.154226120000001      5.380656060000000     21.033531220000000
Au      9.155995420000000     15.077901019999999     14.288651519999998
Au      9.157136820000000     14.963458899999999      7.483340020000000
Au      3.498336660000000      5.313453600000000     14.265123080000000
Au     11.972274340000000      5.298077720000000     14.259220819999999
Au      3.496341940000000     15.018875820000000     14.251661060000000
Au     11.967292740000000     15.037564879999998     14.261018720000001
Au      6.347732820000000      5.298397520000000     14.258763999999999
Au     14.819427740000002      5.317480220000000     14.269699859999999
Au      6.346155400000000     15.036827519999999     14.259293099999999
Au     14.818271520000000     15.023060259999999     14.258375300000001
Au      2.128337120000000      7.691413079999999     14.258700560000001
Au     10.576051979999999      7.711782260000000     14.255566260000000
Au     10.533309279999999      7.722703300000000      7.353082360000000
Au     10.593273080000001      7.753437900000000     21.159922160000001
Au     10.527279360000000     17.493783839999999     14.268429500000000
Au      4.907006520000000      7.711380820000000     14.279644339999999
Au      5.018669500000000      7.770077900000000      7.485901800000000
Au     13.410827040000001      7.713210700000000     14.284747100000001
Au     13.308877400000002      7.781854340000001      7.490537860000000
Au      5.008466060000000     17.349843940000000     14.252558840000001
Au     13.301738060000000     17.351301240000002     14.256733400000000
Au      7.740891340000000      7.712818360000000     14.255203040000000
Au      7.791607720000001      7.721838539999999      7.350393700000001
Au      7.717247200000000      7.753175820000000     21.158911800000002
Au     16.191535620000000      7.695249380000001     14.267623240000001
Au      7.784077079999999     17.493631480000001     14.266470920000001
Au      2.125016660000000     10.985237120000001     16.593982340000000
Au     10.573708079999999     10.988244540000000     16.573102259999999
Au     10.599431700000000     11.008222159999999      9.640751379999999
Au      4.904894800000000     10.958586340000000     16.582938060000000
Au      4.797085020000000     11.072825139999999      9.559204720000000
Au     13.409801340000000     10.962052139999999     16.584929400000000
Au     13.523682900000001     11.076968500000000      9.561577480000000
Au      7.740862480000000     10.986569099999999     16.572575239999999
Au      7.722113360000001     11.005736560000001      9.638074940000001
Au     16.190527599999999     10.988372719999999     16.601881660000000
Au      9.159939619999999      3.421496780000000     16.643787680000003
Au      9.154988959999999     13.524979000000000     16.633948759999999
Au      9.158716840000000     13.421151380000001      9.667335599999999
Au     11.968593520000001      3.669379740000000     16.598455380000001
Au      3.313264760000000     13.539844239999999     16.642308539999998
Au     11.971667240000000     13.456146860000000     16.585873460000002
Au     12.127575459999999     13.497952780000000      9.555636480000000
Au      6.351888400000000      3.670629560000000     16.597595560000002
Au      6.339419840000000     13.453129820000001     16.581985159999999
Au      6.191201640000000     13.493866359999998      9.552486840000000
Au     14.999319140000001     13.543817040000000     16.649418499999999
Au     10.597054520000000      6.083837760000000     16.581554340000000
Au     10.557973140000000      5.936142159999999      9.549838220000000
Au     10.553856560000000     16.015784200000002     16.684597279999998
Au     10.593468339999999     15.876478800000001      9.679218120000000
Au      4.793162400000000      6.033481480000000     16.674877179999999
Au      4.936440340000001      6.071313819999999      9.682076820000001
Au     13.522813459999998      6.034534480000000     16.680086020000001
Au     13.385230820000000      6.076066880000000      9.684464920000000
Au      4.930156400000000     15.848296879999999     16.592067180000001
Au     13.381421820000000     15.849883660000000     16.595894120000001
Au      7.721514060000000      6.085409720000000     16.581326839999999
Au      7.763594800000001      5.935789339999999      9.548683560000001
Au      7.756494200000000     16.015047100000000     16.683024799999998
Au      7.720494340000000     15.877279600000000      9.677998200000001
Au      9.158962540000001      8.531048500000001     16.568571500000001
Au      9.161255220000001      8.508946419999999      9.637058860000000
Au      3.395627820000001      8.452850639999999     16.673673640000001
Au      3.503085820000000      8.555548040000000      9.682645960000000
Au     12.061374519999999      8.488833860000000     16.628525159999999
Au     11.969932780000001      8.550032659999999      9.670092900000000
Au      6.254300520000000      8.485909380000001     16.626350780000003
Au      6.351873840000000      8.547565260000001      9.666534020000000
Au     14.918766460000001      8.456427460000000     16.676955880000001
Au     14.818144380000001      8.559658380000000      9.690416579999999
Au      9.155953300000000     11.832542540000000     18.878440359999999
Au      9.159930259999999     11.809070520000001     11.945885380000000
Au      3.496278240000000     11.779142960000001     18.835935820000000
Au      3.396407820000000     11.877639539999999     11.836954220000001
Au     11.966987760000000     11.794568500000000     18.850603979999999
Au     12.063524980000000     11.851241220000000     11.891350900000001
Au      6.344966680000000     11.793077139999999     18.849372880000001
Au      6.256522740000000     11.847429880000000     11.888873360000000
Au     14.815080799999999     11.783016699999999     18.840128060000001
Au     14.920508979999999     11.884274999999999     11.845360019999999
Au     10.593444939999999      4.462880240000000     18.839991040000001
Au     10.555949040000000      4.323226180000000     11.832352740000001
Au     10.552947860000000     14.404032239999999     18.966047620000001
Au     10.596872520000000     14.252528939999999     11.935924520000000
Au      4.935478860000000      4.481313980000000     11.922548039999999
Au     13.379642120000000      4.483206260000000     11.923870920000001
Au      4.927449540000000     14.264799120000001     18.833586459999999
Au      4.794869560000000     14.298742900000001     11.836907940000000
Au     13.380052139999998     14.269710519999999     18.839714920000002
Au     13.523931460000000     14.305552559999999     11.842328160000001
Au      7.723164800000000      4.461643680000000     18.838729520000001
Au      7.760097540000000      4.322051240000000     11.832373799999999
Au      7.755293519999999     14.403829180000001     18.964483200000000
Au      7.718251580000000     14.250858699999998     11.933992979999999
Au      9.158510660000001      6.921140459999999     18.847012339999999
Au      9.159591480000000      6.814742740000000     11.883556100000000
Au      9.156623059999999     16.913815880000001     11.873156880000000
Au      3.322400380000000      6.792320080000001     11.872268720000001
Au     12.126664420000001      6.843997420000000     18.958888520000002
Au     11.969807980000001      6.880197220000000     11.932946480000000
Au     11.963199299999999     16.669041220000000     11.921977340000000
Au      6.188792220000000      6.840847259999999     18.957189679999999
Au      6.351272460000001      6.877352559999999     11.929342100000000
Au     14.997031919999998      6.796853700000000     11.879009999999999
Au      6.350472180000000     16.667712359999999     11.920068940000000
Au      2.127711300000000      9.346223119999999     11.921345280000001
Au     10.596674139999999      9.336642899999999     18.876497380000000
Au     10.575921200000000      9.351760080000000     11.944868000000000
Au      4.792412820000000      9.261764200000000     18.955158559999997
Au      4.909205600000000      9.374698320000000     11.934458380000001
Au     13.523164459999998      9.264880300000000     18.959285800000000
Au     13.410174699999999      9.379346080000001     11.938734600000000
Au      7.716485660000000      9.334826280000001     18.874975599999999
Au      7.742896460000000      9.351474339999999     11.943685000000000
Au     16.191630000000000      9.352642260000000     11.928390240000001
Au     17.453820800000003     10.170143879999999     14.266305039999999
